data_cif

_audit_creation_method             'generated by GULP'

_symmetry_space_group_name_H-M     'P 1'
_symmetry_Int_Tables_number        1
_symmetry_cell_setting             triclinic

_cell_length_a                       24.2470
_cell_length_b                       24.2470
_cell_length_c                       24.2470
_cell_angle_alpha                   90.0000
_cell_angle_beta                    90.0000
_cell_angle_gamma                   90.0000

loop_
_atom_site_label
_atom_site_fract_x
_atom_site_fract_y
_atom_site_fract_z
_atom_site_occupancy
  Si          0.44650      0.12536      0.53613  1.0000
  Si          0.44650      0.62535      0.03614  1.0000
  Si          0.94650      0.12536      0.03614  1.0000
  Si          0.94650      0.62535      0.53613  1.0000
  Si          0.30349      0.62463      0.53613  1.0000
  Si          0.30349      0.12464      0.03614  1.0000
  Si          0.80348      0.62463      0.03614  1.0000
  Si          0.80348      0.12464      0.53613  1.0000
  Si          0.44650      0.62463      0.21386  1.0000
  Si          0.44650      0.12464      0.71385  1.0000
  Si          0.94649      0.62463      0.71385  1.0000
  Si          0.94649      0.12464      0.21386  1.0000
  Si          0.30349      0.12536      0.21386  1.0000
  Si          0.30349      0.62535      0.71385  1.0000
  Si          0.80349      0.12536      0.71385  1.0000
  Si          0.80349      0.62535      0.21386  1.0000
  Si          0.53613      0.44650      0.12536  1.0000
  Si          0.53613      0.94650      0.62535  1.0000
  Si          0.03614      0.44650      0.62535  1.0000
  Si          0.03614      0.94650      0.12536  1.0000
  Si          0.12536      0.53613      0.44650  1.0000
  Si          0.12536      0.03614      0.94649  1.0000
  Si          0.62536      0.53613      0.94649  1.0000
  Si          0.62536      0.03614      0.44650  1.0000
  Si          0.21386      0.30349      0.12536  1.0000
  Si          0.21386      0.80349      0.62536  1.0000
  Si          0.71385      0.30349      0.62536  1.0000
  Si          0.71385      0.80349      0.12536  1.0000
  Si          0.62463      0.53613      0.30349  1.0000
  Si          0.62463      0.03614      0.80349  1.0000
  Si          0.12464      0.53613      0.80349  1.0000
  Si          0.12464      0.03614      0.30349  1.0000
  Si          0.53613      0.30349      0.62463  1.0000
  Si          0.53613      0.80349      0.12464  1.0000
  Si          0.03614      0.30349      0.12464  1.0000
  Si          0.03614      0.80349      0.62463  1.0000
  Si          0.62463      0.21386      0.44650  1.0000
  Si          0.62463      0.71385      0.94649  1.0000
  Si          0.12464      0.21386      0.94649  1.0000
  Si          0.12464      0.71385      0.44650  1.0000
  Si          0.21386      0.44650      0.62463  1.0000
  Si          0.21386      0.94649      0.12464  1.0000
  Si          0.71385      0.44650      0.12464  1.0000
  Si          0.71385      0.94649      0.62463  1.0000
  Si          0.12536      0.21386      0.30349  1.0000
  Si          0.12536      0.71385      0.80349  1.0000
  Si          0.62535      0.21386      0.80349  1.0000
  Si          0.62535      0.71385      0.30349  1.0000
  Si          0.87463      0.55349      0.46386  1.0000
  Si          0.87463      0.05350      0.96385  1.0000
  Si          0.37464      0.55349      0.96385  1.0000
  Si          0.37464      0.05350      0.46386  1.0000
  Si          0.37536      0.69650      0.46386  1.0000
  Si          0.37536      0.19650      0.96385  1.0000
  Si          0.87535      0.69650      0.96385  1.0000
  Si          0.87535      0.19650      0.46386  1.0000
  Si          0.37536      0.55349      0.78613  1.0000
  Si          0.37536      0.05349      0.28614  1.0000
  Si          0.87535      0.55349      0.28614  1.0000
  Si          0.87535      0.05349      0.78613  1.0000
  Si          0.87463      0.69650      0.78613  1.0000
  Al          0.87463      0.19650      0.28614  1.0000
  Si          0.37464      0.69650      0.28614  1.0000
  Si          0.37464      0.19650      0.78613  1.0000
  Si          0.55349      0.46386      0.87463  1.0000
  Si          0.55349      0.96385      0.37464  1.0000
  Si          0.05349      0.46386      0.37464  1.0000
  Si          0.05349      0.96385      0.87463  1.0000
  Si          0.46386      0.87463      0.55349  1.0000
  Si          0.46386      0.37464      0.05349  1.0000
  Si          0.96385      0.87463      0.05349  1.0000
  Si          0.96385      0.37464      0.55349  1.0000
  Si          0.69650      0.78613      0.87463  1.0000
  Si          0.69650      0.28614      0.37464  1.0000
  Si          0.19650      0.78613      0.37464  1.0000
  Si          0.19650      0.28614      0.87463  1.0000
  Si          0.46386      0.37536      0.69650  1.0000
  Si          0.46386      0.87535      0.19650  1.0000
  Si          0.96385      0.37536      0.19650  1.0000
  Si          0.96385      0.87535      0.69650  1.0000
  Si          0.69650      0.46386      0.37536  1.0000
  Si          0.69650      0.96385      0.87535  1.0000
  Si          0.19650      0.46386      0.87535  1.0000
  Si          0.19650      0.96385      0.37536  1.0000
  Si          0.78613      0.37536      0.55349  1.0000
  Si          0.78613      0.87535      0.05349  1.0000
  Si          0.28614      0.37536      0.05349  1.0000
  Si          0.28614      0.87535      0.55349  1.0000
  Si          0.55349      0.78613      0.37536  1.0000
  Si          0.55349      0.28614      0.87535  1.0000
  Si          0.05349      0.78613      0.87535  1.0000
  Si          0.05349      0.28614      0.37536  1.0000
  Si          0.78613      0.87463      0.69650  1.0000
  Si          0.78613      0.37464      0.19650  1.0000
  Si          0.28614      0.87463      0.19650  1.0000
  Si          0.28614      0.37464      0.69650  1.0000
  Si          0.55349      0.87463      0.46386  1.0000
  Si          0.55349      0.37464      0.96385  1.0000
  Si          0.05349      0.87463      0.96385  1.0000
  Al          0.05349      0.37464      0.46386  1.0000
  Si          0.69650      0.37536      0.46386  1.0000
  Si          0.69650      0.87535      0.96385  1.0000
  Al          0.19650      0.37536      0.96385  1.0000
  Si          0.19650      0.87535      0.46386  1.0000
  Al          0.55349      0.37536      0.78613  1.0000
  Al          0.55349      0.87535      0.28614  1.0000
  Si          0.05349      0.37536      0.28614  1.0000
  Al          0.05349      0.87535      0.78613  1.0000
  Al          0.69650      0.87463      0.78613  1.0000
  Al          0.69650      0.37464      0.28614  1.0000
  Al          0.19650      0.87463      0.28614  1.0000
  Si          0.19650      0.37464      0.78613  1.0000
  Al          0.46386      0.55349      0.87463  1.0000
  Al          0.46386      0.05350      0.37464  1.0000
  Si          0.96385      0.55349      0.37464  1.0000
  Al          0.96385      0.05350      0.87463  1.0000
  Al          0.87463      0.46386      0.55349  1.0000
  Al          0.87463      0.96385      0.05349  1.0000
  Si          0.37464      0.46386      0.05349  1.0000
  Si          0.37464      0.96385      0.55349  1.0000
  Si          0.78613      0.69650      0.87463  1.0000
  Si          0.78613      0.19650      0.37464  1.0000
  Al          0.28614      0.69650      0.37464  1.0000
  Si          0.28614      0.19650      0.87463  1.0000
  Si          0.37536      0.46386      0.69650  1.0000
  Si          0.37536      0.96385      0.19650  1.0000
  Al          0.87535      0.46386      0.19650  1.0000
  Al          0.87535      0.96385      0.69650  1.0000
  Si          0.46386      0.69650      0.37536  1.0000
  Al          0.46386      0.19650      0.87535  1.0000
  Al          0.96385      0.69650      0.87535  1.0000
  Si          0.96385      0.19650      0.37536  1.0000
  Al          0.37536      0.78613      0.55349  1.0000
  Al          0.37536      0.28614      0.05349  1.0000
  Si          0.87535      0.78613      0.05349  1.0000
  Si          0.87535      0.28614      0.55349  1.0000
  Al          0.78613      0.55349      0.37536  1.0000
  Si          0.78613      0.05349      0.87535  1.0000
  Si          0.28614      0.55349      0.87535  1.0000
  Al          0.28614      0.05349      0.37536  1.0000
  Si          0.87463      0.78613      0.69650  1.0000
  Si          0.87463      0.28614      0.19650  1.0000
  Al          0.37464      0.78613      0.19650  1.0000
  Al          0.37464      0.28614      0.69650  1.0000
  Si          0.12536      0.44650      0.53613  1.0000
  Al          0.12536      0.94650      0.03614  1.0000
  Al          0.62535      0.44650      0.03614  1.0000
  Al          0.62535      0.94650      0.53613  1.0000
  Al          0.62463      0.30349      0.53613  1.0000
  Al          0.62463      0.80349      0.03614  1.0000
  Si          0.12464      0.30349      0.03614  1.0000
  Al          0.12464      0.80349      0.53613  1.0000
  Si          0.62463      0.44650      0.21386  1.0000
  Si          0.62463      0.94649      0.71385  1.0000
  Al          0.12464      0.44650      0.71385  1.0000
  Si          0.12464      0.94649      0.21386  1.0000
  Al          0.12536      0.30349      0.21386  1.0000
  Si          0.12536      0.80349      0.71385  1.0000
  Si          0.62536      0.30349      0.71385  1.0000
  Si          0.62536      0.80349      0.21386  1.0000
  Al          0.44650      0.53613      0.12536  1.0000
  Al          0.44650      0.03614      0.62536  1.0000
  Si          0.94649      0.53613      0.62536  1.0000
  Si          0.94649      0.03614      0.12536  1.0000
  Si          0.53613      0.12536      0.44650  1.0000
  Si          0.53613      0.62535      0.94650  1.0000
  Si          0.03614      0.12536      0.94650  1.0000
  Al          0.03614      0.62535      0.44650  1.0000
  Si          0.30349      0.21386      0.12536  1.0000
  Si          0.30349      0.71385      0.62535  1.0000
  Al          0.80349      0.21386      0.62535  1.0000
  Al          0.80349      0.71385      0.12536  1.0000
  Al          0.53613      0.62463      0.30349  1.0000
  Si          0.53613      0.12464      0.80348  1.0000
  Si          0.03614      0.62463      0.80348  1.0000
  Al          0.03614      0.12464      0.30349  1.0000
  Al          0.30349      0.53613      0.62463  1.0000
  Al          0.30349      0.03614      0.12464  1.0000
  Si          0.80349      0.53613      0.12464  1.0000
  Si          0.80349      0.03614      0.62463  1.0000
  Si          0.21386      0.62463      0.44650  1.0000
  Al          0.21386      0.12464      0.94649  1.0000
  Al          0.71385      0.62463      0.94649  1.0000
  Al          0.71385      0.12464      0.44650  1.0000
  Si          0.44650      0.21386      0.62463  1.0000
  Si          0.44650      0.71385      0.12464  1.0000
  Si          0.94649      0.21386      0.12464  1.0000
  Al          0.94649      0.71385      0.62463  1.0000
  Si          0.21386      0.12536      0.30349  1.0000
  Al          0.21386      0.62535      0.80349  1.0000
  Al          0.71385      0.12536      0.80349  1.0000
  Si          0.71385      0.62535      0.30349  1.0000
  O2          0.89405      0.60594      0.49999  1.0000
  O2          0.89405      0.10594      0.99999  1.0000
  O2          0.39406      0.60594      0.99999  1.0000
  O2          0.39406      0.10594      0.49999  1.0000
  O2          0.35594      0.64405      0.50000  1.0000
  O2          0.35594      0.14406      0.99999  1.0000
  O2          0.85593      0.64405      0.99999  1.0000
  O2          0.85593      0.14406      0.50000  1.0000
  O2          0.89405      0.64405      0.74999  1.0000
  O2          0.89405      0.14406      0.25000  1.0000
  O2          0.39406      0.64405      0.25000  1.0000
  O2          0.39406      0.14406      0.74999  1.0000
  O2          0.35594      0.60593      0.74999  1.0000
  O2          0.35594      0.10594      0.25000  1.0000
  O2          0.85593      0.60593      0.25000  1.0000
  O2          0.85593      0.10594      0.74999  1.0000
  O2          0.49999      0.89405      0.60593  1.0000
  O2          0.49999      0.39406      0.10594  1.0000
  O2          0.99999      0.89405      0.10594  1.0000
  O2          0.99999      0.39406      0.60593  1.0000
  O2          0.60593      0.49999      0.89405  1.0000
  O2          0.60593      0.00000      0.39406  1.0000
  O2          0.10594      0.49999      0.39406  1.0000
  O2          0.10594      0.00000      0.89405  1.0000
  O2          0.75000      0.35594      0.60593  1.0000
  O2          0.75000      0.85593      0.10594  1.0000
  O2          0.25000      0.35594      0.10594  1.0000
  O2          0.25000      0.85593      0.60593  1.0000
  O2          0.64405      0.50000      0.35594  1.0000
  O2          0.64405      0.00000      0.85593  1.0000
  O2          0.14406      0.50000      0.85593  1.0000
  O2          0.14406      0.00000      0.35594  1.0000
  O2          0.50000      0.35594      0.64405  1.0000
  O2          0.50000      0.85593      0.14406  1.0000
  O2          0.99999      0.35594      0.14406  1.0000
  O2          0.99999      0.85593      0.64405  1.0000
  O2          0.64405      0.74999      0.89405  1.0000
  O2          0.64405      0.25000      0.39405  1.0000
  O2          0.14406      0.74999      0.39405  1.0000
  O2          0.14406      0.25000      0.89405  1.0000
  O2          0.74999      0.89405      0.64405  1.0000
  O2          0.74999      0.39405      0.14406  1.0000
  O2          0.25000      0.89405      0.14406  1.0000
  O2          0.25000      0.39405      0.64405  1.0000
  O2          0.60593      0.74999      0.35593  1.0000
  O2          0.60593      0.25000      0.85593  1.0000
  O2          0.10594      0.74999      0.85593  1.0000
  O2          0.10594      0.25000      0.35593  1.0000
  O2          0.10594      0.39406      0.49999  1.0000
  O2          0.10594      0.89405      0.99999  1.0000
  O2          0.60593      0.39406      0.99999  1.0000
  O2          0.60593      0.89405      0.49999  1.0000
  O2          0.64405      0.35594      0.50000  1.0000
  O2          0.64405      0.85593      0.99999  1.0000
  O2          0.14406      0.35594      0.99999  1.0000
  O2          0.14406      0.85593      0.50000  1.0000
  O2          0.10594      0.35594      0.25000  1.0000
  O2          0.10594      0.85593      0.75000  1.0000
  O2          0.60593      0.35594      0.75000  1.0000
  O2          0.60593      0.85593      0.25000  1.0000
  O2          0.64405      0.39405      0.25000  1.0000
  O2          0.64405      0.89405      0.74999  1.0000
  O2          0.14406      0.39405      0.74999  1.0000
  O2          0.14406      0.89405      0.25000  1.0000
  O2          0.49999      0.10594      0.39406  1.0000
  O2          0.49999      0.60594      0.89405  1.0000
  O2          0.99999      0.10594      0.89405  1.0000
  O2          0.99999      0.60594      0.39406  1.0000
  O2          0.39406      0.49999      0.10594  1.0000
  O2          0.39406      0.00000      0.60593  1.0000
  O2          0.89405      0.49999      0.60593  1.0000
  O2          0.89405      0.00000      0.10594  1.0000
  O2          0.25000      0.64405      0.39406  1.0000
  O2          0.25000      0.14406      0.89405  1.0000
  O2          0.74999      0.64405      0.89405  1.0000
  O2          0.74999      0.14406      0.39406  1.0000
  O2          0.35594      0.50000      0.64405  1.0000
  O2          0.35594      0.00000      0.14406  1.0000
  O2          0.85593      0.50000      0.14406  1.0000
  O2          0.85593      0.00000      0.64405  1.0000
  O2          0.50000      0.64405      0.35594  1.0000
  O2          0.50000      0.14406      0.85593  1.0000
  O2          0.99999      0.64405      0.85593  1.0000
  O2          0.99999      0.14406      0.35594  1.0000
  O2          0.35593      0.25000      0.10594  1.0000
  O2          0.35593      0.74999      0.60593  1.0000
  O2          0.85593      0.25000      0.60593  1.0000
  O2          0.85593      0.74999      0.10594  1.0000
  O2          0.25000      0.10594      0.35594  1.0000
  O2          0.25000      0.60593      0.85593  1.0000
  O2          0.74999      0.10594      0.85593  1.0000
  O2          0.74999      0.60593      0.35594  1.0000
  O2          0.39405      0.25000      0.64405  1.0000
  O2          0.39405      0.74999      0.14406  1.0000
  O2          0.89405      0.25000      0.14406  1.0000
  O2          0.89405      0.74999      0.64405  1.0000
  O2          0.96710      0.57507      0.57508  1.0000
  O2          0.96710      0.07508      0.07508  1.0000
  O2          0.46710      0.57507      0.07508  1.0000
  O2          0.46710      0.07508      0.57508  1.0000
  O2          0.28288      0.67491      0.57508  1.0000
  O2          0.28288      0.17492      0.07508  1.0000
  O2          0.78288      0.67491      0.07508  1.0000
  O2          0.78288      0.17492      0.57508  1.0000
  O2          0.96710      0.67491      0.67491  1.0000
  O2          0.96710      0.17492      0.17492  1.0000
  O2          0.46710      0.67491      0.17492  1.0000
  O2          0.46710      0.17492      0.67491  1.0000
  O2          0.28288      0.57508      0.67491  1.0000
  O2          0.28288      0.07508      0.17492  1.0000
  O2          0.78288      0.57508      0.17492  1.0000
  O2          0.78288      0.07508      0.67491  1.0000
  O2          0.57507      0.96710      0.57507  1.0000
  O2          0.57507      0.46711      0.07508  1.0000
  O2          0.07508      0.96710      0.07508  1.0000
  O2          0.07508      0.46711      0.57507  1.0000
  O2          0.57508      0.57507      0.96710  1.0000
  O2          0.57508      0.07508      0.46710  1.0000
  O2          0.07508      0.57507      0.46710  1.0000
  O2          0.07508      0.07508      0.96710  1.0000
  O2          0.67491      0.28289      0.57508  1.0000
  O2          0.67491      0.78288      0.07508  1.0000
  O2          0.17492      0.28289      0.07508  1.0000
  O2          0.17492      0.78288      0.57508  1.0000
  O2          0.67491      0.57508      0.28288  1.0000
  O2          0.67491      0.07508      0.78288  1.0000
  O2          0.17492      0.57508      0.78288  1.0000
  O2          0.17492      0.07508      0.28288  1.0000
  O2          0.57508      0.28289      0.67491  1.0000
  O2          0.57508      0.78288      0.17492  1.0000
  O2          0.07508      0.28289      0.17492  1.0000
  O2          0.07508      0.78288      0.67491  1.0000
  O2          0.67491      0.67491      0.96710  1.0000
  O2          0.67491      0.17492      0.46710  1.0000
  O2          0.17492      0.67491      0.46710  1.0000
  O2          0.17492      0.17492      0.96710  1.0000
  O2          0.67491      0.96710      0.67491  1.0000
  O2          0.67491      0.46711      0.17492  1.0000
  O2          0.17492      0.96710      0.17492  1.0000
  O2          0.17492      0.46711      0.67491  1.0000
  O2          0.57508      0.67491      0.28288  1.0000
  O2          0.57508      0.17492      0.78288  1.0000
  O2          0.07508      0.67491      0.78288  1.0000
  O2          0.07508      0.17492      0.28288  1.0000
  O2          0.42492      0.03289      0.42492  1.0000
  O2          0.42492      0.53288      0.92491  1.0000
  O2          0.92491      0.03289      0.92491  1.0000
  O2          0.92491      0.53288      0.42492  1.0000
  O2          0.32508      0.71710      0.42492  1.0000
  O2          0.32508      0.21711      0.92491  1.0000
  O2          0.82507      0.71710      0.92491  1.0000
  O2          0.82507      0.21711      0.42492  1.0000
  O2          0.32508      0.03289      0.32508  1.0000
  O2          0.32508      0.53288      0.82507  1.0000
  O2          0.82507      0.03289      0.82507  1.0000
  O2          0.82507      0.53288      0.32508  1.0000
  O2          0.42492      0.71710      0.32508  1.0000
  O2          0.42492      0.21711      0.82507  1.0000
  O2          0.92491      0.71710      0.82507  1.0000
  O2          0.92491      0.21711      0.32508  1.0000
  O2          0.03288      0.42492      0.42492  1.0000
  O2          0.03288      0.92491      0.92491  1.0000
  O2          0.53288      0.42492      0.92491  1.0000
  O2          0.53288      0.92491      0.42492  1.0000
  O2          0.42492      0.42492      0.03288  1.0000
  O2          0.42492      0.92491      0.53288  1.0000
  O2          0.92491      0.42492      0.53288  1.0000
  O2          0.92491      0.92491      0.03288  1.0000
  O2          0.71710      0.32508      0.42492  1.0000
  O2          0.71710      0.82507      0.92491  1.0000
  O2          0.21711      0.32508      0.92491  1.0000
  O2          0.21711      0.82507      0.42492  1.0000
  O2          0.42492      0.32508      0.71710  1.0000
  O2          0.42492      0.82507      0.21711  1.0000
  O2          0.92491      0.32508      0.21711  1.0000
  O2          0.92491      0.82507      0.71710  1.0000
  O2          0.71710      0.42492      0.32508  1.0000
  O2          0.71710      0.92491      0.82507  1.0000
  O2          0.21711      0.42492      0.82507  1.0000
  O2          0.21711      0.92491      0.32508  1.0000
  O2          0.32508      0.32508      0.03288  1.0000
  O2          0.32508      0.82507      0.53288  1.0000
  O2          0.82507      0.32508      0.53288  1.0000
  O2          0.82507      0.82507      0.03288  1.0000
  O2          0.03288      0.32508      0.32508  1.0000
  O2          0.03288      0.82507      0.82507  1.0000
  O2          0.53288      0.32508      0.82507  1.0000
  O2          0.53288      0.82507      0.32508  1.0000
  O2          0.32508      0.42492      0.71710  1.0000
  O2          0.32508      0.92491      0.21711  1.0000
  O2          0.82507      0.42492      0.21711  1.0000
  O2          0.82507      0.92491      0.71710  1.0000
  O2          0.49715      0.14325      0.49715  1.0000
  O2          0.49715      0.64325      0.99715  1.0000
  O2          0.99715      0.14325      0.99715  1.0000
  O2          0.99715      0.64325      0.49715  1.0000
  O2          0.25284      0.60674      0.49715  1.0000
  O2          0.25284      0.10674      0.99714  1.0000
  O2          0.75284      0.60674      0.99714  1.0000
  O2          0.75284      0.10674      0.49715  1.0000
  O2          0.49715      0.60674      0.25284  1.0000
  O2          0.49715      0.10674      0.75284  1.0000
  O2          0.99714      0.60674      0.75284  1.0000
  O2          0.99714      0.10674      0.25284  1.0000
  O2          0.25284      0.14326      0.25284  1.0000
  O2          0.25284      0.64325      0.75284  1.0000
  O2          0.75284      0.14326      0.75284  1.0000
  O2          0.75284      0.64325      0.25284  1.0000
  O2          0.49715      0.49715      0.14326  1.0000
  O2          0.49715      0.99715      0.64325  1.0000
  O2          0.99715      0.49715      0.64325  1.0000
  O2          0.99715      0.99715      0.14326  1.0000
  O2          0.14326      0.49715      0.49715  1.0000
  O2          0.14326      0.99715      0.99715  1.0000
  O2          0.64325      0.49715      0.99715  1.0000
  O2          0.64325      0.99715      0.49715  1.0000
  O2          0.25284      0.25284      0.14326  1.0000
  O2          0.25284      0.75284      0.64325  1.0000
  O2          0.75284      0.25284      0.64325  1.0000
  O2          0.75284      0.75284      0.14326  1.0000
  O2          0.60674      0.49715      0.25284  1.0000
  O2          0.60674      0.99714      0.75284  1.0000
  O2          0.10674      0.49715      0.75284  1.0000
  O2          0.10674      0.99714      0.25284  1.0000
  O2          0.49715      0.25284      0.60674  1.0000
  O2          0.49715      0.75284      0.10674  1.0000
  O2          0.99714      0.25284      0.10674  1.0000
  O2          0.99714      0.75284      0.60674  1.0000
  O2          0.60674      0.25284      0.49715  1.0000
  O2          0.60674      0.75284      0.99714  1.0000
  O2          0.10674      0.25284      0.99714  1.0000
  O2          0.10674      0.75284      0.49715  1.0000
  O2          0.25284      0.49715      0.60674  1.0000
  O2          0.25284      0.99714      0.10674  1.0000
  O2          0.75284      0.49715      0.10674  1.0000
  O2          0.75284      0.99714      0.60674  1.0000
  O2          0.14326      0.25284      0.25284  1.0000
  O2          0.14326      0.75284      0.75284  1.0000
  O2          0.64325      0.25284      0.75284  1.0000
  O2          0.64325      0.75284      0.25284  1.0000
  O2          0.85674      0.50284      0.50284  1.0000
  O2          0.85674      0.00285      0.00285  1.0000
  O2          0.35674      0.50284      0.00285  1.0000
  O2          0.35674      0.00285      0.50284  1.0000
  O2          0.39326      0.74715      0.50284  1.0000
  O2          0.39326      0.24715      0.00285  1.0000
  O2          0.89325      0.74715      0.00285  1.0000
  O2          0.89325      0.24715      0.50284  1.0000
  O2          0.39325      0.50284      0.74715  1.0000
  O2          0.39325      0.00284      0.24715  1.0000
  O2          0.89325      0.50284      0.24715  1.0000
  O2          0.89325      0.00284      0.74715  1.0000
  O2          0.85674      0.74715      0.74715  1.0000
  O2          0.85674      0.24715      0.24715  1.0000
  O2          0.35674      0.74715      0.24715  1.0000
  O2          0.35674      0.24715      0.74715  1.0000
  O2          0.50284      0.50284      0.85674  1.0000
  O2          0.50284      0.00285      0.35674  1.0000
  O2          0.00285      0.50284      0.35674  1.0000
  O2          0.00285      0.00285      0.85674  1.0000
  O2          0.50284      0.85673      0.50284  1.0000
  O2          0.50284      0.35674      0.00285  1.0000
  O2          0.00285      0.85673      0.00285  1.0000
  O2          0.00285      0.35674      0.50284  1.0000
  O2          0.74715      0.74715      0.85674  1.0000
  O2          0.74715      0.24715      0.35674  1.0000
  O2          0.24715      0.74715      0.35674  1.0000
  O2          0.24715      0.24715      0.85674  1.0000
  O2          0.50284      0.39325      0.74715  1.0000
  O2          0.50284      0.89325      0.24715  1.0000
  O2          0.00284      0.39325      0.24715  1.0000
  O2          0.00284      0.89325      0.74715  1.0000
  O2          0.74715      0.50284      0.39325  1.0000
  O2          0.74715      0.00284      0.89325  1.0000
  O2          0.24715      0.50284      0.89325  1.0000
  O2          0.24715      0.00284      0.39325  1.0000
  O2          0.74715      0.39325      0.50284  1.0000
  O2          0.74715      0.89325      0.00284  1.0000
  O2          0.24715      0.39325      0.00284  1.0000
  O2          0.24715      0.89325      0.50284  1.0000
  O2          0.50284      0.74715      0.39326  1.0000
  O2          0.50284      0.24715      0.89325  1.0000
  O2          0.00285      0.74715      0.89325  1.0000
  O2          0.00285      0.24715      0.39326  1.0000
  O2          0.74715      0.85674      0.74715  1.0000
  O2          0.74715      0.35674      0.24715  1.0000
  O2          0.24715      0.85674      0.24715  1.0000
  O2          0.24715      0.35674      0.74715  1.0000
  O2          0.42737      0.17737      0.57262  1.0000
  O2          0.42737      0.67737      0.07262  1.0000
  O2          0.92737      0.17737      0.07262  1.0000
  O2          0.92737      0.67737      0.57262  1.0000
  O2          0.32261      0.57262      0.57262  1.0000
  O2          0.32261      0.07263      0.07263  1.0000
  O2          0.82261      0.57262      0.07263  1.0000
  O2          0.82261      0.07263      0.57262  1.0000
  O2          0.42737      0.57262      0.17737  1.0000
  O2          0.42737      0.07262      0.67737  1.0000
  O2          0.92737      0.57262      0.67737  1.0000
  O2          0.92737      0.07262      0.17737  1.0000
  O2          0.32262      0.17737      0.17737  1.0000
  O2          0.32262      0.67737      0.67737  1.0000
  O2          0.82261      0.17737      0.67737  1.0000
  O2          0.82261      0.67737      0.17737  1.0000
  O2          0.57262      0.42737      0.17737  1.0000
  O2          0.57262      0.92737      0.67737  1.0000
  O2          0.07262      0.42737      0.67737  1.0000
  O2          0.07262      0.92737      0.17737  1.0000
  O2          0.17737      0.57262      0.42737  1.0000
  O2          0.17737      0.07262      0.92737  1.0000
  O2          0.67737      0.57262      0.92737  1.0000
  O2          0.67737      0.07262      0.42737  1.0000
  O2          0.17737      0.32262      0.17737  1.0000
  O2          0.17737      0.82262      0.67737  1.0000
  O2          0.67737      0.32262      0.67737  1.0000
  O2          0.67737      0.82262      0.17737  1.0000
  O2          0.57262      0.57262      0.32261  1.0000
  O2          0.57262      0.07263      0.82261  1.0000
  O2          0.07263      0.57262      0.82261  1.0000
  O2          0.07263      0.07263      0.32261  1.0000
  O2          0.57262      0.32261      0.57262  1.0000
  O2          0.57262      0.82261      0.07263  1.0000
  O2          0.07263      0.32261      0.07263  1.0000
  O2          0.07263      0.82261      0.57262  1.0000
  O2          0.57262      0.17737      0.42737  1.0000
  O2          0.57262      0.67737      0.92737  1.0000
  O2          0.07262      0.17737      0.92737  1.0000
  O2          0.07262      0.67737      0.42737  1.0000
  O2          0.17737      0.42737      0.57262  1.0000
  O2          0.17737      0.92737      0.07262  1.0000
  O2          0.67737      0.42738      0.07262  1.0000
  O2          0.67737      0.92737      0.57262  1.0000
  O2          0.17737      0.17737      0.32262  1.0000
  O2          0.17737      0.67737      0.82261  1.0000
  O2          0.67737      0.17737      0.82261  1.0000
  O2          0.67737      0.67737      0.32262  1.0000
  O2          0.82262      0.57262      0.42737  1.0000
  O2          0.82262      0.07262      0.92737  1.0000
  O2          0.32262      0.57262      0.92737  1.0000
  O2          0.32262      0.07262      0.42737  1.0000
  O2          0.42737      0.67737      0.42737  1.0000
  O2          0.42737      0.17737      0.92737  1.0000
  O2          0.92737      0.67737      0.92737  1.0000
  O2          0.92737      0.17737      0.42737  1.0000
  O2          0.42737      0.57262      0.82262  1.0000
  O2          0.42737      0.07262      0.32262  1.0000
  O2          0.92737      0.57262      0.32262  1.0000
  O2          0.92737      0.07262      0.82262  1.0000
  O2          0.82262      0.67738      0.82262  1.0000
  O2          0.82262      0.17738      0.32262  1.0000
  O2          0.32262      0.67738      0.32262  1.0000
  O2          0.32262      0.17738      0.82262  1.0000
  O2          0.57261      0.42737      0.82262  1.0000
  O2          0.57261      0.92736      0.32262  1.0000
  O2          0.07262      0.42737      0.32262  1.0000
  O2          0.07262      0.92736      0.82262  1.0000
  O2          0.42737      0.82262      0.57261  1.0000
  O2          0.42737      0.32262      0.07262  1.0000
  O2          0.92736      0.82262      0.07262  1.0000
  O2          0.92736      0.32262      0.57261  1.0000
  O2          0.67737      0.82262      0.82262  1.0000
  O2          0.67737      0.32262      0.32262  1.0000
  O2          0.17738      0.82262      0.32262  1.0000
  O2          0.17738      0.32262      0.82262  1.0000
  O2          0.42737      0.42737      0.67737  1.0000
  O2          0.42737      0.92737      0.17737  1.0000
  O2          0.92737      0.42737      0.17737  1.0000
  O2          0.92737      0.92737      0.67737  1.0000
  O2          0.67737      0.42737      0.42737  1.0000
  O2          0.67737      0.92737      0.92737  1.0000
  O2          0.17737      0.42737      0.92737  1.0000
  O2          0.17737      0.92737      0.42737  1.0000
  O2          0.82262      0.42737      0.57261  1.0000
  O2          0.82262      0.92736      0.07262  1.0000
  O2          0.32262      0.42737      0.07262  1.0000
  O2          0.32262      0.92736      0.57261  1.0000
  O2          0.57261      0.82262      0.42737  1.0000
  O2          0.57261      0.32262      0.92736  1.0000
  O2          0.07262      0.82262      0.92736  1.0000
  O2          0.07262      0.32262      0.42737  1.0000
  O2          0.82262      0.82262      0.67737  1.0000
  O2          0.82262      0.32262      0.17738  1.0000
  O2          0.32262      0.82262      0.17738  1.0000
  O2          0.32262      0.32262      0.67737  1.0000
